24
Properties=species:S:1:pos:R:3 pbc="F F F"
C       -1.76762700       0.18393500       0.00048700
C       -2.62437100       1.28207400      -0.00591300
C       -2.28539300      -1.11413500       0.00782900
C       -4.00213000       1.09101500      -0.00723400
C       -3.66013300      -1.29924900       0.00771500
C       -4.52037500      -0.19988400       0.00008800
H       -2.18772800       2.27694500      -0.01134400
H       -1.59814500      -1.95402400       0.01324400
H       -4.66998700       1.94829700      -0.01182800
H       -4.06903200      -2.30644500       0.01423900
H       -5.59645400      -0.35400600       0.00053900
N       -0.37488400       0.49664200       0.00238800
N        0.37482800      -0.49652400      -0.00535200
C        1.76755600      -0.18470000      -0.00245300
C        2.62502800      -1.28234300      -0.00780300
C        2.28498800       1.11346800       0.00490200
C        4.00256300      -1.09056300      -0.00512600
C        3.65962100       1.29947600       0.00723500
C        4.52032100       0.20062500       0.00243900
H        2.18937400      -2.27772600      -0.01422400
H        1.59753200       1.95318000       0.00837300
H        4.67074000      -1.94763900      -0.00883400
H        4.06745800       2.30709600       0.01289700
H        5.59633900       0.35518900       0.00468700
