24
Properties=species:S:1:pos:R:3 pbc="F F F"
C       -1.76707100       0.18309800       0.00095400
C       -2.62292900       1.28194600      -0.01209500
C       -2.28659500      -1.11395400       0.01577600
C       -4.00059700       1.09209900      -0.01203500
C       -3.66150300      -1.29819800       0.01644700
C       -4.52032400      -0.19823900       0.00294900
H       -2.18443600       2.27613200      -0.02181900
H       -1.59926000      -1.95390500       0.02753500
H       -4.66866900       1.94918000      -0.02049400
H       -4.07137000      -2.30496200       0.03141700
H       -5.59677800      -0.35054500       0.00421900
N       -0.37490000       0.49403700       0.00611100
N        0.37465700      -0.49962600      -0.01911700
C        1.76727300      -0.18665300      -0.01083000
C        2.62660800      -1.28257100      -0.01798300
C        2.28353800       1.11234700       0.00486900
C        4.00392500      -1.08863900      -0.00592100
C        3.65766600       1.30049200       0.01552100
C        4.52029200       0.20302900       0.01128000
H        2.19309200      -2.27866000      -0.03277000
H        1.59406700       1.95045100       0.00868300
H        4.67304100      -1.94477600      -0.00846700
H        4.06425600       2.30863900       0.02819200
H        5.59605300       0.35902800       0.02095100
