24
Properties=species:S:1:pos:R:3 pbc="F F F"
C       -1.70824600       0.24251000      -0.01455800
C       -2.52072100       1.17053400      -0.57595000
C       -2.25417100      -0.89248200       0.59851700
C       -3.89136700       0.91698900      -0.52659000
C       -3.61166700      -1.12754000       0.66132800
C       -4.44076200      -0.22623500       0.09214000
H       -2.08229600       2.07200300      -1.04809000
H       -1.54449800      -1.58973900       1.02631900
H       -4.58012800       1.62478900      -0.97678800
H       -4.02376700      -2.02647200       1.15158400
H       -5.52165400      -0.39509200       0.12506500
N       -0.37258900       0.36508500       0.04071000
N        0.25621800      -0.39887700      -0.38504900
C        1.70152300      -0.18503200      -0.16142400
C        2.54594100      -1.12522300      -0.61212200
C        2.23416300       0.95506200       0.46932900
C        3.94169500      -0.96456000      -0.44591300
C        3.62028200       1.12292100       0.63655300
C        4.50400100       0.16116400       0.17943800
H        2.13280700      -1.99295000      -1.09795400
H        1.50804200       1.68532800       0.81461200
H        4.59100000      -1.72234200      -0.81568800
H        4.02246400       2.01480900       1.12567000
H        5.58859200       0.27756400       0.30115400
