24
Properties=species:S:1:pos:R:3 pbc="F F F"
C       -1.79121400       0.19187600       0.31536500
C       -2.36523100       1.05523900      -0.62254600
C       -2.53208900      -0.80039200       0.92183400
C       -3.69149100       0.89843500      -1.01884600
C       -3.86614500      -0.94831500       0.53435700
C       -4.43869300      -0.11588100      -0.43338100
H       -1.76601200       1.84702400      -1.04819400
H       -2.10157200      -1.46540400       1.66552600
H       -4.09520800       1.53079700      -1.80406400
H       -4.42716800      -1.77406100       0.94940800
H       -5.46315300      -0.28258400      -0.75340200
N       -0.36334300       0.46374900       0.69455800
N        0.36209600      -0.48401700       0.15045600
C        1.73504900      -0.20196800       0.13314900
C        2.48613400      -1.16136300      -0.59035400
C        2.38297900       0.92415800       0.65250600
C        3.84145400      -1.00920300      -0.79023600
C        3.75314800       1.06902600       0.46001400
C        4.46681900       0.11905100      -0.26319900
H        1.92723300      -2.00964900      -0.98225300
H        1.86744500       1.69447700       1.21421600
H        4.40820400      -1.73251800      -1.38084400
H        4.24344000       1.95279400       0.85424200
H        5.53120100       0.25700800      -0.42171600
