24
Properties=species:S:1:pos:R:3 pbc="F F F"
C       -1.76718500       0.24725500       0.03260800
C       -2.45033900       0.31800900      -1.17692100
C       -2.44152000      -0.04189100       1.21435700
C       -3.82075900       0.08043000      -1.20247300
C       -3.81209700      -0.27745900       1.17904400
C       -4.50477400      -0.21705700      -0.02699700
H       -1.90529000       0.55337200      -2.08695000
H       -1.88942200      -0.08440700       2.14924000
H       -4.35535600       0.12712100      -2.14781400
H       -4.33982500      -0.51109800       2.10021500
H       -5.57575500      -0.39951900      -0.05058800
N       -0.36574700       0.55262400       0.07295300
N        0.34947700      -0.45264600      -0.06268700
C        1.75733000      -0.18246800      -0.02572000
C        2.57750200      -1.29633200      -0.17831200
C        2.31021500       1.08773300       0.14884000
C        3.96073500      -1.14740000      -0.15766500
C        3.69008800       1.23088400       0.16881000
C        4.51623700       0.11599400       0.01598400
H        2.11066400      -2.26824400      -0.31176100
H        1.64771200       1.93969600       0.26562700
H        4.60306800      -2.01583300      -0.27662400
H        4.12905400       2.21594000       0.30439300
H        5.59644200       0.23693400       0.03307900
