24
Properties=species:S:1:pos:R:3 pbc="F F F"
C       -1.76759100       0.24793600       0.03033800
C       -2.44558200       0.28967700      -1.18336700
C       -2.44691000      -0.01196400       1.21581500
C       -3.81593200       0.05132700      -1.20914100
C       -3.81731200      -0.24875500       1.18037000
C       -4.50486800      -0.21755400      -0.02969700
H       -1.89668100       0.50317500      -2.09645600
H       -1.89888800      -0.03150800       2.15384900
H       -4.34638700       0.07464000      -2.15765700
H       -4.34879000      -0.46065700       2.10460900
H       -5.57568900      -0.40110400      -0.05335900
N       -0.36572900       0.55498800       0.07015200
N        0.34942800      -0.45383900      -0.04311200
C        1.75711100      -0.18268300      -0.01759900
C        2.57676400      -1.30000400      -0.14751900
C        2.31141500       1.09087200       0.12606900
C        3.95999700      -1.15135900      -0.13491200
C        3.69149700       1.23380900       0.13817200
C        4.51668700       0.11546800       0.00793300
H        2.10889500      -2.27440700      -0.25704300
H        1.65024300       1.94600800       0.22584700
H        4.60159600      -2.02256300      -0.23621600
H        4.13115900       2.22156000       0.24979200
H        5.59699600       0.23618900       0.01858600
