24
Properties=species:S:1:pos:R:3 pbc="F F F"
C       -1.77167500       0.23569600       0.00661900
C       -2.45302500       0.17200800      -1.20469100
C       -2.45127600       0.09259500       1.21210000
C       -3.82599800      -0.05142800      -1.20604600
C       -3.82431300      -0.13013000       1.20081300
C       -4.51468200      -0.20303700      -0.00579400
H       -1.90477700       0.29666200      -2.13459500
H       -1.90156400       0.15611400       2.14730900
H       -4.35848400      -0.10909100      -2.15179200
H       -4.35546500      -0.24899700       2.14158500
H       -5.58770200      -0.37554800      -0.01072000
N       -0.36753500       0.53324900       0.01543000
N        0.35874200      -0.47572400      -0.01228800
C        1.76350500      -0.19006400      -0.00543100
C        2.59460100      -1.30682100      -0.03942700
C        2.30757900       1.09559200       0.03324800
C        3.97594700      -1.14577800      -0.03520200
C        3.68643500       1.25126500       0.03744900
C        4.52147900       0.13357800       0.00338500
H        2.13482200      -2.29090100      -0.06891400
H        1.64103400       1.95190000       0.05959600
H        4.62503400      -2.01681400      -0.06163100
H        4.11646700       2.24898100       0.06791700
H        5.60072600       0.26416600       0.00710600
