24
Properties=species:S:1:pos:R:3 pbc="F F F"
C       -1.45434500      -0.84909500       0.01525100
C       -1.96618300      -0.40507400      -1.20267600
C       -1.93345200      -0.33022000       1.21658800
C       -2.92419100       0.60273700      -1.21501100
C       -2.89122200       0.67766400       1.19221100
C       -3.38444300       1.15251300      -0.02080000
H       -1.60240800      -0.84439600      -2.12787100
H       -1.54457400      -0.71182900       2.15701500
H       -3.31568000       0.95841600      -2.16467600
H       -3.25695800       1.09199400       2.12826600
H       -4.13536400       1.93756800      -0.03494000
N       -0.54286400      -1.95328300       0.03752500
N        0.69162200      -1.84409800       0.02637500
C        1.45324200      -0.61515000       0.01047000
C        2.82349400      -0.89701600      -0.00671600
C        1.03399300       0.72436900       0.01027800
C        3.76801100       0.12009300      -0.02405800
C        1.98609100       1.73831300      -0.00752800
C        3.34712300       1.44582600      -0.02456600
H        3.11819800      -1.94220900      -0.00619300
H       -0.01124800       0.99811400       0.02355400
H        4.82744900      -0.12099800      -0.03723400
H        1.65428400       2.77337600      -0.00771500
H        4.07628900       2.25186400      -0.03815800
