24
Properties=species:S:1:pos:R:3 pbc="F F F"
C       -1.45393100      -0.84846600      -0.00110700
C       -1.94741200      -0.36447400      -1.21090400
C       -1.94914700      -0.36995700       1.21018700
C       -2.90638100       0.64257100      -1.20321400
C       -2.90815100       0.63707700       1.20566700
C       -3.38414600       1.15180600       0.00204500
H       -1.57047800      -0.77335200      -2.14462100
H       -1.57354400      -0.78305000       2.14258100
H       -3.28540500       1.02919300      -2.14578800
H       -3.28855000       1.01941400       2.14943800
H       -4.13472500       1.93734900       0.00328800
N       -0.54267600      -1.95378400      -0.00306600
N        0.69146200      -1.84396600      -0.00244900
C        1.45225700      -0.61573000      -0.00119900
C        2.82299100      -0.89671600       0.00098600
C        1.03326700       0.72415400      -0.00191600
C        3.76730800       0.12043300       0.00260900
C        1.98532000       1.73850300      -0.00027500
C        3.34628500       1.44624700       0.00200400
H        3.11764200      -1.94190700       0.00138800
H       -0.01168800       0.99834800      -0.00374800
H        4.82682800      -0.12035600       0.00434200
H        1.65337900       2.77354800      -0.00082000
H        4.07548000       2.25237000       0.00326000
