24
Properties=species:S:1:pos:R:3 pbc="F F F"
C       -1.45289300      -0.84867800       0.00001900
C       -1.94932900      -0.36784900      -1.21015100
C       -1.94731800      -0.36713700       1.21072300
C       -2.90768800       0.63986400      -1.20352900
C       -2.90571000       0.64055300       1.20509800
C       -3.38392200       1.15199900       0.00103300
H       -1.57331300      -0.77854700      -2.14345800
H       -1.56974800      -0.77727500       2.14364800
H       -3.28733100       1.02490600      -2.14655200
H       -3.28379900       1.02613400       2.14852600
H       -4.13512600       1.93691100       0.00142800
N       -0.54312000      -1.95431300      -0.00044700
N        0.69111100      -1.84462800      -0.00070900
C        1.45227700      -0.61576500      -0.00065200
C        2.82304900      -0.89639900       0.00105900
C        1.03285200       0.72390000      -0.00216700
C        3.76720100       0.12090700       0.00145200
C        1.98460400       1.73838600      -0.00185600
C        3.34583300       1.44657400      -0.00001200
H        3.11816000      -1.94155000       0.00209300
H       -0.01244900       0.99764600      -0.00370300
H        4.82682600      -0.11967300       0.00285500
H        1.65209000       2.77319600      -0.00308300
H        4.07502400       2.25271600       0.00023200
