24
Properties=species:S:1:pos:R:3 pbc="F F F"
C       -1.45308500      -0.84886800      -0.00001000
C       -1.95178400      -0.36879100      -1.20955200
C       -1.94506500      -0.36631700       1.21129400
C       -2.90991400       0.63912400      -1.20179900
C       -2.90331900       0.64150200       1.20683200
C       -3.38371200       1.15222100       0.00332400
H       -1.57745000      -0.78012800      -2.14325500
H       -1.56552800      -0.77573100       2.14374300
H       -3.29122300       1.02371100      -2.14433400
H       -3.27944400       1.02794100       2.15069200
H       -4.13502200       1.93703400       0.00460700
N       -0.54326600      -1.95439000      -0.00147700
N        0.69096400      -1.84454800      -0.00205100
C        1.45214600      -0.61575000      -0.00190500
C        2.82294000      -0.89644500       0.00341500
C        1.03293200       0.72399000      -0.00674700
C        3.76719200       0.12075500       0.00446400
C        1.98480700       1.73838800      -0.00595400
C        3.34598600       1.44647200      -0.00025300
H        3.11792300      -1.94162800       0.00676600
H       -0.01229700       0.99793600      -0.01146800
H        4.82678900      -0.11991200       0.00881800
H        1.65227900       2.77318700      -0.00987800
H        4.07533900       2.25246400       0.00035100
