24
Properties=species:S:1:pos:R:3 pbc="F F F"
C       -1.31220500      -0.78746700       0.03541500
C       -2.08847700      -0.54445100      -1.10096900
C       -1.60171300      -0.13719600       1.23812800
C       -3.09888800       0.42503600      -1.04784400
C       -2.62221400       0.82283100       1.26912800
C       -3.37970500       1.10277900       0.13630000
H       -1.87976900      -1.08377500      -2.01861800
H       -1.01706900      -0.36047000       2.12355800
H       -3.67165900       0.64709100      -1.94400800
H       -2.81914700       1.35645900       2.19520200
H       -4.18321200       1.83336400       0.17696500
N       -0.45751900      -1.93443700       0.03633100
N        0.75304700      -1.96467700      -0.00063600
C        1.48238400      -0.69223700      -0.04859800
C        2.86625100      -0.81181300       0.19789800
C        0.92800800       0.55137700      -0.35438300
C        3.68775800       0.32011600       0.17146800
C        1.76025000       1.66333300      -0.39915500
C        3.13128400       1.54728200      -0.12693800
H        3.26289200      -1.79510300       0.40904800
H       -0.13055000       0.64338300      -0.57964400
H        4.75307300       0.22861300       0.37465800
H        1.33889200       2.63312200      -0.64787000
H        3.76144700       2.43357600      -0.16185700
