24
Properties=species:S:1:pos:R:3 pbc="F F F"
C       -1.37500100      -0.75810700       0.07755600
C       -2.45977700      -0.67900900      -0.79728800
C       -1.24094400       0.18307400       1.10018600
C       -3.33786500       0.39693200      -0.71641800
C       -2.14245500       1.23970300       1.18743100
C       -3.19259000       1.36006600       0.28091500
H       -2.62018200      -1.46245400      -1.53440000
H       -0.44348400       0.08369500       1.83274100
H       -4.16237700       0.44863200      -1.42077100
H       -2.01785800       1.95887100       1.99118800
H       -3.87594300       2.20371700       0.33625100
N       -0.58424500      -1.93659000       0.06172900
N        0.64284600      -2.01081200       0.02308500
C        1.41828100      -0.77524800      -0.10727900
C        2.46674600      -0.65148700       0.80821600
C        1.25415100       0.12908500      -1.14601200
C        3.30216200       0.46864000       0.73997300
C        2.12661100       1.20848000      -1.23380400
C        3.12804300       1.39230300      -0.27880200
H        2.61520200      -1.41962100       1.55320500
H        0.48861100      -0.04156600      -1.89262900
H        4.10285600       0.59422200       1.46403400
H        2.03430900       1.92567600      -2.04623400
H        3.78449100       2.25405500      -0.36513900
