24
Properties=species:S:1:pos:R:3 pbc="F F F"
C       -1.38745500      -0.79984400       0.08689500
C       -2.44768500      -0.65815900      -0.80541700
C       -1.21085400       0.12205100       1.11944200
C       -3.29115200       0.44322100      -0.70446500
C       -2.07881900       1.20412200       1.23095200
C       -3.11225600       1.37597800       0.31437500
H       -2.60068000      -1.41538200      -1.56961300
H       -0.40040900      -0.01665800       1.82993300
H       -4.10716000       0.55980800      -1.41299500
H       -1.94344300       1.91745100       2.03985100
H       -3.78212100       2.22747100       0.39864400
N       -0.61013300      -1.99969800       0.01993300
N        0.62504300      -1.99962400      -0.04137600
C        1.39324300      -0.78127300      -0.12951200
C        2.50557100      -0.70167000       0.71429500
C        1.15750200       0.21433700      -1.07139100
C        3.34116100       0.40763300       0.66279000
C        2.01866200       1.30604200      -1.13833300
C        3.09928400       1.41379400      -0.26605800
H        2.69989400      -1.52239400       1.39761000
H        0.31534300       0.13413000      -1.75026600
H        4.19419200       0.47645200       1.33310300
H        1.83712600       2.08173900      -1.87724500
H        3.75967100       2.27523200      -0.32035600
