24
Properties=species:S:1:pos:R:3 pbc="F F F"
C       -1.39743200      -0.78212400       0.09743200
C       -2.46328400      -0.66328300      -0.79182600
C       -1.21673300       0.15884700       1.11142100
C       -3.31298200       0.43384900      -0.70844800
C       -2.08940500       1.23685700       1.20640600
C       -3.12926500       1.38500000       0.29167800
H       -2.61309000      -1.43594200      -1.54137700
H       -0.40219000       0.04299800       1.82093400
H       -4.13203700       0.53584900      -1.41553000
H       -1.95314500       1.96801700       1.99892300
H       -3.80413300       2.23345600       0.36706600
N       -0.62023300      -1.99105100       0.01584100
N        0.61875200      -1.99113400      -0.01437400
C        1.39727500      -0.78276300      -0.09768900
C        2.46166800      -0.66225800       0.79425800
C        1.21843600       0.15615100      -1.11300700
C        3.31115300       0.43439400       0.71031100
C        2.09226200       1.23381700      -1.20904300
C        3.13003200       1.38338500      -0.29303200
H        2.60884100      -1.43347700       1.54566200
H        0.40433300       0.03998600      -1.82310100
H        4.12831300       0.53878300       1.41928600
H        1.95778100       1.96298300      -2.00373900
H        3.80534800       2.23140700      -0.36916300
