24
Properties=species:S:1:pos:R:3 pbc="F F F"
C       -1.39813100      -0.78290000       0.09749200
C       -2.46365300      -0.66402400      -0.79231900
C       -1.21832100       0.15737600       1.11196400
C       -3.31393700       0.43243700      -0.70858200
C       -2.09252000       1.23399200       1.20822100
C       -3.13200300       1.38227800       0.29325300
H       -2.61127000      -1.43566800      -1.54332800
H       -0.40373100       0.04199700       1.82151800
H       -4.13219000       0.53502500      -1.41652400
H       -1.95726400       1.96450800       2.00155300
H       -3.80795100       2.22972400       0.36999400
N       -0.61926200      -1.99011000       0.01277300
N        0.61978700      -1.98910600      -0.01720100
C        1.39758000      -0.78101500      -0.09887600
C        2.46701700      -0.66739800       0.78724400
C        1.21463900       0.16421000      -1.10789400
C        3.31752700       0.42873300       0.70581500
C        2.08910800       1.24119000      -1.20184100
C        3.13205000       1.38416700      -0.29036300
H        2.61704300      -1.44318400       1.53348700
H        0.39746000       0.05333500      -1.81508700
H        4.13876200       0.52736800       1.41086800
H        1.95100300       1.97561200      -1.99105700
H        3.80834000       2.23151000      -0.36511300
