24
Properties=species:S:1:pos:R:3 pbc="F F F"
C       -1.39822200      -0.78206100       0.09818200
C       -2.46654800      -0.66666400      -0.78888900
C       -1.21620100       0.16128900       1.10930200
C       -3.31732500       0.42942200      -0.70611900
C       -2.09078900       1.23777500       1.20461300
C       -3.13290200       1.38263400       0.29215200
H       -2.61570900      -1.44090100      -1.53690000
H       -0.39959800       0.04883200       1.81698800
H       -4.13767200       0.52933800      -1.41201500
H       -1.95372600       1.97079100       1.99532700
H       -3.80922300       2.22982500       0.36838100
N       -0.61941400      -1.98924100       0.01400900
N        0.61958700      -1.98894300      -0.01558700
C        1.39787300      -0.78138000      -0.09845100
C        2.46746600      -0.66773200       0.78733900
C        1.21497700       0.16355900      -1.10794300
C        3.31850000       0.42817500       0.70521200
C        2.08976400       1.24005100      -1.20254900
C        3.13309600       1.38309500      -0.29131300
H        2.61734900      -1.44318200       1.53395600
H        0.39784000       0.05247100      -1.81515500
H        4.13995600       0.52664900       1.41001400
H        1.95183600       1.97430000      -1.99198000
H        3.80960900       2.23019400      -0.36679900
