24
Properties=species:S:1:pos:R:3 pbc="F F F"
C       -1.39844000      -0.78120800       0.09820700
C       -2.46865600      -0.66836400      -0.78704000
C       -1.21568000       0.16407500       1.10742200
C       -3.32034200       0.42702900      -0.70475100
C       -2.09118000       1.23993900       1.20231900
C       -3.13504300       1.38219400       0.29151300
H       -2.61851700      -1.44423700      -1.53320800
H       -0.39804800       0.05363500       1.81420100
H       -4.14219700       0.52482100      -1.40919000
H       -1.95349100       1.97435500       1.99162200
H       -3.81196500       2.22895200       0.36727700
N       -0.61949000      -1.98835300       0.01486800
N        0.61952200      -1.98839500      -0.01468700
C        1.39846900      -0.78127800      -0.09812600
C        2.46860000      -0.66824200       0.78717800
C        1.21578600       0.16382900      -1.10755200
C        3.32025000       0.42720100       0.70480000
C        2.09121700       1.23971100      -1.20251900
C        3.13498200       1.38218800      -0.29160000
H        2.61845900      -1.44397900       1.53348400
H        0.39829000       0.05316200      -1.81445100
H        4.14204600       0.52509700       1.40929400
H        1.95359000       1.97397800      -1.99197200
H        3.81182200       2.22900700      -0.36741600
